Version 4.1
SHEET 1 7092 5768
WIRE -4816 -2080 -4880 -2080
WIRE -4704 -2080 -4752 -2080
WIRE -4880 -1984 -4880 -2080
WIRE -4784 -1984 -4800 -1984
WIRE -4704 -1984 -4704 -2080
WIRE -2000 -1984 -2480 -1984
WIRE -4672 -1920 -4784 -1920
WIRE -5088 -1888 -5104 -1888
WIRE -4992 -1888 -5024 -1888
WIRE -4880 -1888 -4880 -1984
WIRE -4880 -1888 -4912 -1888
WIRE -4784 -1888 -4784 -1920
WIRE -4880 -1872 -4880 -1888
WIRE -4816 -1872 -4880 -1872
WIRE -4704 -1856 -4704 -1984
WIRE -4704 -1856 -4752 -1856
WIRE -4512 -1856 -4704 -1856
WIRE -4816 -1840 -4880 -1840
WIRE -4080 -1824 -4240 -1824
WIRE -3920 -1824 -4016 -1824
WIRE -5088 -1808 -5104 -1808
WIRE -4992 -1808 -5024 -1808
WIRE -4880 -1808 -4880 -1840
WIRE -4880 -1808 -4912 -1808
WIRE -4784 -1808 -4784 -1824
WIRE -4672 -1808 -4784 -1808
WIRE -4880 -1792 -4880 -1808
WIRE -3920 -1776 -3920 -1824
WIRE -3920 -1776 -4016 -1776
WIRE -5104 -1744 -5136 -1744
WIRE -2400 -1744 -2400 -1760
WIRE -4240 -1728 -4240 -1824
WIRE -4224 -1728 -4240 -1728
WIRE -4096 -1728 -4144 -1728
WIRE -4016 -1728 -4016 -1776
WIRE -3920 -1728 -3920 -1776
WIRE -3920 -1728 -3936 -1728
WIRE -3600 -1696 -3696 -1696
WIRE -3408 -1696 -3520 -1696
WIRE -5104 -1680 -5104 -1744
WIRE -4880 -1680 -4880 -1712
WIRE -3072 -1680 -3136 -1680
WIRE -2944 -1680 -3008 -1680
WIRE -4064 -1648 -4080 -1648
WIRE -3536 -1632 -3552 -1632
WIRE -4080 -1616 -4080 -1648
WIRE -2400 -1616 -2400 -1664
WIRE -2224 -1616 -2400 -1616
WIRE -4512 -1600 -4512 -1856
WIRE -4448 -1600 -4512 -1600
WIRE -4352 -1600 -4384 -1600
WIRE -4240 -1600 -4240 -1728
WIRE -4240 -1600 -4272 -1600
WIRE -4112 -1600 -4240 -1600
WIRE -3552 -1600 -3552 -1632
WIRE -2144 -1600 -2160 -1600
WIRE -2032 -1600 -2080 -1600
WIRE -1968 -1600 -2032 -1600
WIRE -1856 -1600 -1968 -1600
WIRE -3920 -1584 -3920 -1728
WIRE -3920 -1584 -4048 -1584
WIRE -3904 -1584 -3920 -1584
WIRE -3808 -1584 -3840 -1584
WIRE -3696 -1584 -3696 -1696
WIRE -3696 -1584 -3728 -1584
WIRE -3584 -1584 -3696 -1584
WIRE -2480 -1584 -2480 -1984
WIRE -2272 -1584 -2480 -1584
WIRE -2224 -1584 -2272 -1584
WIRE -1856 -1584 -1856 -1600
WIRE -4688 -1568 -4800 -1568
WIRE -4112 -1568 -4144 -1568
WIRE -3408 -1568 -3408 -1696
WIRE -3408 -1568 -3520 -1568
WIRE -3392 -1568 -3408 -1568
WIRE -3312 -1568 -3328 -1568
WIRE -3280 -1568 -3312 -1568
WIRE -3136 -1568 -3136 -1680
WIRE -3136 -1568 -3200 -1568
WIRE -3120 -1568 -3136 -1568
WIRE -2944 -1568 -2944 -1680
WIRE -2944 -1568 -2960 -1568
WIRE -2800 -1568 -2944 -1568
WIRE -2640 -1568 -2720 -1568
WIRE -4752 -1552 -4752 -1584
WIRE -3584 -1552 -3616 -1552
WIRE -2192 -1552 -2192 -1568
WIRE -4800 -1536 -4800 -1568
WIRE -4800 -1536 -4864 -1536
WIRE -4784 -1536 -4800 -1536
WIRE -4144 -1536 -4144 -1568
WIRE -4080 -1536 -4080 -1552
WIRE -4064 -1536 -4080 -1536
WIRE -2400 -1536 -2400 -1616
WIRE -4688 -1520 -4688 -1568
WIRE -4688 -1520 -4720 -1520
WIRE -4512 -1520 -4688 -1520
WIRE -3616 -1520 -3616 -1552
WIRE -3552 -1520 -3552 -1536
WIRE -3536 -1520 -3552 -1520
WIRE -1968 -1520 -1968 -1600
WIRE -4784 -1504 -4800 -1504
WIRE -3696 -1504 -3696 -1584
WIRE -3040 -1472 -3040 -1568
WIRE -3008 -1472 -3040 -1472
WIRE -2880 -1472 -2928 -1472
WIRE -1856 -1472 -1856 -1504
WIRE -4752 -1456 -4752 -1488
WIRE -4800 -1440 -4800 -1504
WIRE -3696 -1392 -3696 -1424
WIRE -3072 -1392 -3136 -1392
WIRE -2944 -1392 -3008 -1392
WIRE -2272 -1392 -2272 -1584
WIRE -2224 -1392 -2272 -1392
WIRE -2144 -1376 -2160 -1376
WIRE -2032 -1376 -2032 -1600
WIRE -2032 -1376 -2080 -1376
WIRE -2400 -1360 -2400 -1456
WIRE -2224 -1360 -2400 -1360
WIRE -1968 -1344 -1968 -1456
WIRE -1856 -1344 -1856 -1408
WIRE -2400 -1328 -2400 -1360
WIRE -2192 -1328 -2192 -1344
WIRE -3312 -1280 -3312 -1568
WIRE -3280 -1280 -3312 -1280
WIRE -3136 -1280 -3136 -1392
WIRE -3136 -1280 -3200 -1280
WIRE -3120 -1280 -3136 -1280
WIRE -2944 -1280 -2944 -1392
WIRE -2944 -1280 -2960 -1280
WIRE -2800 -1280 -2944 -1280
WIRE -2640 -1280 -2640 -1568
WIRE -2640 -1280 -2720 -1280
WIRE -2400 -1216 -2400 -1248
WIRE -3040 -1184 -3040 -1280
WIRE -2992 -1184 -3040 -1184
WIRE -2880 -1184 -2880 -1472
WIRE -2880 -1184 -2928 -1184
WIRE 336 -1152 336 -1184
WIRE 656 -1152 656 -1184
WIRE 736 -1152 736 -1184
WIRE -3312 -1088 -3312 -1280
WIRE -3280 -1088 -3312 -1088
WIRE -3120 -1088 -3200 -1088
WIRE -2800 -1088 -2960 -1088
WIRE -2640 -1088 -2640 -1280
WIRE -2640 -1088 -2720 -1088
WIRE 336 -1040 336 -1072
WIRE 656 -1040 656 -1072
WIRE 736 -1040 736 -1072
WIRE -3040 -1024 -3040 -1088
WIRE -2768 -992 -2784 -992
WIRE -2784 -960 -2784 -992
WIRE -3040 -944 -3040 -960
WIRE -2880 -944 -2880 -1184
WIRE -2880 -944 -3040 -944
WIRE -2816 -944 -2880 -944
WIRE -2640 -928 -2640 -1088
WIRE -2640 -928 -2752 -928
WIRE -2560 -928 -2640 -928
WIRE -2480 -928 -2480 -1584
WIRE -2480 -928 -2560 -928
WIRE -3040 -912 -3040 -944
WIRE -2816 -912 -2848 -912
WIRE -2848 -880 -2848 -912
WIRE -2784 -880 -2784 -896
WIRE -2768 -880 -2784 -880
WIRE -2480 -864 -2480 -928
WIRE -3040 -816 -3040 -832
WIRE -2256 -800 -2256 -832
WIRE -2288 -784 -2480 -784
WIRE -2176 -768 -2224 -768
WIRE -2112 -768 -2176 -768
WIRE -2064 -768 -2112 -768
WIRE -2288 -752 -2320 -752
WIRE -3040 -720 -3040 -752
WIRE -2256 -688 -2256 -736
WIRE -2176 -640 -2176 -768
WIRE -2320 -544 -2320 -752
WIRE -2176 -544 -2176 -560
WIRE -2176 -544 -2320 -544
WIRE -2176 -528 -2176 -544
WIRE -2480 -416 -2480 -704
WIRE -2176 -416 -2176 -448
WIRE 784 -320 784 -352
WIRE 784 -320 496 -320
WIRE 496 -288 496 -320
WIRE 784 -288 784 -320
WIRE 720 -240 688 -240
WIRE 688 -224 688 -240
WIRE 112 -192 -48 -192
WIRE 272 -192 176 -192
WIRE 496 -176 496 -208
WIRE 624 -176 496 -176
WIRE 1088 -176 1088 -192
WIRE 1184 -176 1184 -192
WIRE 1280 -176 1280 -192
WIRE 272 -144 272 -192
WIRE 272 -144 176 -144
WIRE -48 -96 -48 -192
WIRE -32 -96 -48 -96
WIRE 96 -96 48 -96
WIRE 176 -96 176 -144
WIRE 272 -96 272 -144
WIRE 272 -96 256 -96
WIRE 336 -96 272 -96
WIRE 688 -96 688 -128
WIRE 784 -96 784 -192
WIRE 784 -96 688 -96
WIRE -4816 -80 -4880 -80
WIRE -4704 -80 -4752 -80
WIRE 496 -64 496 -176
WIRE 784 -64 784 -96
WIRE 96 0 64 0
WIRE -4880 16 -4880 -80
WIRE -4784 16 -4800 16
WIRE -4704 16 -4704 -80
WIRE -2000 16 -2480 16
WIRE 64 32 64 0
WIRE 1376 32 1264 32
WIRE -272 48 -288 48
WIRE -144 48 -192 48
WIRE -128 48 -144 48
WIRE -48 48 -48 -96
WIRE -48 48 -64 48
WIRE 32 48 -48 48
WIRE 784 48 784 16
WIRE 784 48 752 48
WIRE 976 48 784 48
WIRE 304 64 96 64
WIRE 496 64 496 0
WIRE 496 64 384 64
WIRE 1264 64 1264 32
WIRE 1376 64 1376 32
WIRE -4672 80 -4784 80
WIRE 32 80 0 80
WIRE 304 80 304 64
WIRE 784 80 784 48
WIRE 496 96 496 64
WIRE 976 96 976 48
WIRE -5088 112 -5104 112
WIRE -4992 112 -5024 112
WIRE -4880 112 -4880 16
WIRE -4880 112 -4912 112
WIRE -4784 112 -4784 80
WIRE 64 112 64 96
WIRE 96 112 64 112
WIRE -4880 128 -4880 112
WIRE -4816 128 -4880 128
WIRE 0 128 0 80
WIRE -4704 144 -4704 16
WIRE -4704 144 -4752 144
WIRE -4512 144 -4704 144
WIRE -272 144 -288 144
WIRE -144 144 -144 48
WIRE -144 144 -192 144
WIRE -4816 160 -4880 160
WIRE 384 160 384 64
WIRE 384 160 304 160
WIRE 1376 160 1376 144
WIRE -4080 176 -4240 176
WIRE -3920 176 -4016 176
WIRE 1264 176 1264 144
WIRE -5088 192 -5104 192
WIRE -4992 192 -5024 192
WIRE -4880 192 -4880 160
WIRE -4880 192 -4912 192
WIRE -4784 192 -4784 176
WIRE -4672 192 -4784 192
WIRE 784 192 784 160
WIRE 784 192 688 192
WIRE -4880 208 -4880 192
WIRE -3920 224 -3920 176
WIRE -3920 224 -4016 224
WIRE -272 240 -288 240
WIRE -144 240 -144 144
WIRE -144 240 -192 240
WIRE 496 240 496 160
WIRE 624 240 496 240
WIRE -5104 256 -5136 256
WIRE -2400 256 -2400 240
WIRE -4240 272 -4240 176
WIRE -4224 272 -4240 272
WIRE -4096 272 -4144 272
WIRE -4016 272 -4016 224
WIRE -3920 272 -3920 224
WIRE -3920 272 -3936 272
WIRE 304 272 304 240
WIRE 784 272 784 192
WIRE 976 272 976 176
WIRE 1264 288 1264 240
WIRE 1376 288 1376 240
WIRE -3600 304 -3696 304
WIRE -3408 304 -3520 304
WIRE -5104 320 -5104 256
WIRE -4880 320 -4880 288
WIRE -3072 320 -3136 320
WIRE -2944 320 -3008 320
WIRE 496 320 496 240
WIRE 688 320 688 288
WIRE 720 320 688 320
WIRE -272 336 -288 336
WIRE -144 336 -144 240
WIRE -144 336 -192 336
WIRE -4064 352 -4080 352
WIRE -3536 368 -3552 368
WIRE -4080 384 -4080 352
WIRE -2400 384 -2400 336
WIRE -2224 384 -2400 384
WIRE -4512 400 -4512 144
WIRE -4448 400 -4512 400
WIRE -4352 400 -4384 400
WIRE -4240 400 -4240 272
WIRE -4240 400 -4272 400
WIRE -4112 400 -4240 400
WIRE -3552 400 -3552 368
WIRE -2144 400 -2160 400
WIRE -2032 400 -2080 400
WIRE -1968 400 -2032 400
WIRE -1856 400 -1968 400
WIRE -3920 416 -3920 272
WIRE -3920 416 -4048 416
WIRE -3904 416 -3920 416
WIRE -3808 416 -3840 416
WIRE -3696 416 -3696 304
WIRE -3696 416 -3728 416
WIRE -3584 416 -3696 416
WIRE -2480 416 -2480 16
WIRE -2272 416 -2480 416
WIRE -2224 416 -2272 416
WIRE -1856 416 -1856 400
WIRE -4688 432 -4800 432
WIRE -4112 432 -4144 432
WIRE -3408 432 -3408 304
WIRE -3408 432 -3520 432
WIRE -3392 432 -3408 432
WIRE -3312 432 -3328 432
WIRE -3280 432 -3312 432
WIRE -3136 432 -3136 320
WIRE -3136 432 -3200 432
WIRE -3120 432 -3136 432
WIRE -2944 432 -2944 320
WIRE -2944 432 -2960 432
WIRE -2800 432 -2944 432
WIRE -2640 432 -2720 432
WIRE 496 432 496 400
WIRE 784 432 784 368
WIRE 784 432 496 432
WIRE -4752 448 -4752 416
WIRE -3584 448 -3616 448
WIRE -2192 448 -2192 432
WIRE -4800 464 -4800 432
WIRE -4800 464 -4864 464
WIRE -4784 464 -4800 464
WIRE -4144 464 -4144 432
WIRE -4080 464 -4080 448
WIRE -4064 464 -4080 464
WIRE -2400 464 -2400 384
WIRE -4688 480 -4688 432
WIRE -4688 480 -4720 480
WIRE -4512 480 -4688 480
WIRE -3616 480 -3616 448
WIRE -3552 480 -3552 464
WIRE -3536 480 -3552 480
WIRE -1968 480 -1968 400
WIRE 784 480 784 432
WIRE -4784 496 -4800 496
WIRE -3696 496 -3696 416
WIRE -3040 528 -3040 432
WIRE -3008 528 -3040 528
WIRE -2880 528 -2928 528
WIRE -1856 528 -1856 496
WIRE -4752 544 -4752 512
WIRE -4800 560 -4800 496
WIRE -3696 608 -3696 576
WIRE -3072 608 -3136 608
WIRE -2944 608 -3008 608
WIRE -2272 608 -2272 416
WIRE -2224 608 -2272 608
WIRE -2144 624 -2160 624
WIRE -2032 624 -2032 400
WIRE -2032 624 -2080 624
WIRE -2400 640 -2400 544
WIRE -2224 640 -2400 640
WIRE -1968 656 -1968 544
WIRE -1856 656 -1856 592
WIRE -2400 672 -2400 640
WIRE -2192 672 -2192 656
WIRE -3312 720 -3312 432
WIRE -3280 720 -3312 720
WIRE -3136 720 -3136 608
WIRE -3136 720 -3200 720
WIRE -3120 720 -3136 720
WIRE -2944 720 -2944 608
WIRE -2944 720 -2960 720
WIRE -2800 720 -2944 720
WIRE -2640 720 -2640 432
WIRE -2640 720 -2720 720
WIRE -592 752 -752 752
WIRE -368 752 -592 752
WIRE 320 752 -368 752
WIRE 560 752 320 752
WIRE 784 752 784 736
WIRE 784 752 560 752
WIRE -592 768 -592 752
WIRE -368 768 -368 752
WIRE -2400 784 -2400 752
WIRE 320 784 320 752
WIRE 560 784 560 752
WIRE -3040 816 -3040 720
WIRE -2992 816 -3040 816
WIRE -2880 816 -2880 528
WIRE -2880 816 -2928 816
WIRE -480 816 -528 816
WIRE -432 816 -480 816
WIRE 448 832 384 832
WIRE 496 832 448 832
WIRE -480 880 -480 816
WIRE -368 880 -368 864
WIRE -368 880 -480 880
WIRE -368 896 -368 880
WIRE 448 896 448 832
WIRE 560 896 560 880
WIRE 560 896 448 896
WIRE -3312 912 -3312 720
WIRE -3280 912 -3312 912
WIRE -3120 912 -3200 912
WIRE -2800 912 -2960 912
WIRE -2640 912 -2640 720
WIRE -2640 912 -2720 912
WIRE 560 912 560 896
WIRE -592 944 -592 864
WIRE -432 944 -592 944
WIRE 320 960 320 880
WIRE 496 960 320 960
WIRE -3040 976 -3040 912
WIRE -592 976 -592 944
WIRE 320 976 320 960
WIRE -752 992 -752 752
WIRE -2768 1008 -2784 1008
WIRE -2784 1040 -2784 1008
WIRE 784 1040 784 752
WIRE -3040 1056 -3040 1040
WIRE -2880 1056 -2880 816
WIRE -2880 1056 -3040 1056
WIRE -2816 1056 -2880 1056
WIRE -2640 1072 -2640 912
WIRE -2640 1072 -2752 1072
WIRE -2480 1072 -2480 416
WIRE -2480 1072 -2640 1072
WIRE -592 1072 -592 1056
WIRE 320 1072 320 1056
WIRE -3040 1088 -3040 1056
WIRE -2816 1088 -2848 1088
WIRE 560 1088 560 1008
WIRE 720 1088 560 1088
WIRE -2848 1120 -2848 1088
WIRE -2784 1120 -2784 1104
WIRE -2768 1120 -2784 1120
WIRE -1184 1120 -1232 1120
WIRE -1072 1120 -1104 1120
WIRE -1040 1120 -1072 1120
WIRE -912 1120 -960 1120
WIRE -2480 1136 -2480 1072
WIRE -1232 1152 -1232 1120
WIRE -3040 1184 -3040 1168
WIRE 784 1184 784 1136
WIRE -2256 1200 -2256 1168
WIRE -368 1200 -368 992
WIRE -368 1200 -512 1200
WIRE -224 1200 -368 1200
WIRE -2288 1216 -2480 1216
WIRE -880 1216 -1008 1216
WIRE 560 1216 560 1088
WIRE 560 1216 448 1216
WIRE -2176 1232 -2224 1232
WIRE -2064 1232 -2176 1232
WIRE 448 1232 448 1216
WIRE -2288 1248 -2320 1248
WIRE -512 1248 -512 1200
WIRE -224 1248 -224 1200
WIRE -1008 1264 -1008 1216
WIRE 560 1264 560 1216
WIRE -3040 1280 -3040 1248
WIRE -1072 1280 -1072 1120
WIRE -1040 1280 -1072 1280
WIRE -912 1296 -912 1120
WIRE -912 1296 -976 1296
WIRE -864 1296 -912 1296
WIRE -752 1296 -752 1072
WIRE -752 1296 -800 1296
WIRE -576 1296 -752 1296
WIRE 160 1296 -160 1296
WIRE -2256 1312 -2256 1264
WIRE -1200 1312 -1216 1312
WIRE -1072 1312 -1120 1312
WIRE -1040 1312 -1072 1312
WIRE 496 1312 448 1312
WIRE 784 1328 784 1264
WIRE 784 1328 704 1328
WIRE 864 1328 784 1328
WIRE 992 1328 928 1328
WIRE -2176 1360 -2176 1232
WIRE 992 1376 992 1328
WIRE -1008 1392 -1008 1328
WIRE 784 1392 784 1328
WIRE -1200 1408 -1216 1408
WIRE -1072 1408 -1072 1312
WIRE -1072 1408 -1120 1408
WIRE -512 1408 -512 1344
WIRE -32 1408 -512 1408
WIRE 448 1408 448 1392
WIRE 560 1408 560 1360
WIRE 560 1408 448 1408
WIRE 1408 1440 1296 1440
WIRE -2320 1456 -2320 1248
WIRE -2176 1456 -2176 1440
WIRE -2176 1456 -2320 1456
WIRE 160 1456 160 1296
WIRE 208 1456 160 1456
WIRE 704 1456 704 1328
WIRE 704 1456 288 1456
WIRE -2176 1472 -2176 1456
WIRE -752 1472 -752 1296
WIRE 1296 1472 1296 1440
WIRE 1408 1472 1408 1440
WIRE 160 1488 160 1456
WIRE -1200 1504 -1216 1504
WIRE -1072 1504 -1072 1408
WIRE -1072 1504 -1120 1504
WIRE 992 1504 992 1456
WIRE -224 1520 -224 1344
WIRE -224 1520 -352 1520
WIRE -512 1552 -512 1408
WIRE -224 1552 -224 1520
WIRE 784 1552 784 1472
WIRE 1408 1568 1408 1552
WIRE -2480 1584 -2480 1296
WIRE -2176 1584 -2176 1552
WIRE 160 1584 160 1568
WIRE 1296 1584 1296 1552
WIRE -1200 1600 -1216 1600
WIRE -1072 1600 -1072 1504
WIRE -1072 1600 -1120 1600
WIRE -352 1600 -352 1520
WIRE -352 1600 -448 1600
WIRE -288 1600 -352 1600
WIRE 464 1600 432 1600
WIRE 560 1600 560 1408
WIRE 560 1600 528 1600
WIRE 720 1600 560 1600
WIRE 560 1648 560 1600
WIRE -32 1696 -32 1408
WIRE 432 1696 432 1600
WIRE 432 1696 -32 1696
WIRE 496 1696 432 1696
WIRE 1296 1696 1296 1648
WIRE 1408 1696 1408 1648
WIRE -752 1776 -752 1552
WIRE -512 1776 -512 1648
WIRE -512 1776 -752 1776
WIRE -224 1776 -224 1648
WIRE -224 1776 -512 1776
WIRE 160 1776 160 1648
WIRE 160 1776 -224 1776
WIRE 560 1776 560 1744
WIRE 560 1776 160 1776
WIRE 784 1776 784 1648
WIRE 784 1776 560 1776
WIRE 784 1824 784 1776
WIRE -4816 2032 -4880 2032
WIRE -4704 2032 -4752 2032
WIRE -4880 2128 -4880 2032
WIRE -4784 2128 -4800 2128
WIRE -4704 2128 -4704 2032
WIRE -2000 2128 -2480 2128
WIRE -4672 2192 -4784 2192
WIRE -5088 2224 -5104 2224
WIRE -4992 2224 -5024 2224
WIRE -4880 2224 -4880 2128
WIRE -4880 2224 -4912 2224
WIRE -4784 2224 -4784 2192
WIRE -4880 2240 -4880 2224
WIRE -4816 2240 -4880 2240
WIRE -4704 2256 -4704 2128
WIRE -4704 2256 -4752 2256
WIRE -4512 2256 -4704 2256
WIRE -4816 2272 -4880 2272
WIRE -4080 2288 -4240 2288
WIRE -3920 2288 -4016 2288
WIRE -5088 2304 -5104 2304
WIRE -4992 2304 -5024 2304
WIRE -4880 2304 -4880 2272
WIRE -4880 2304 -4912 2304
WIRE -4784 2304 -4784 2288
WIRE -4672 2304 -4784 2304
WIRE -4880 2320 -4880 2304
WIRE -3920 2336 -3920 2288
WIRE -3920 2336 -4016 2336
WIRE -5104 2368 -5136 2368
WIRE -2400 2368 -2400 2352
WIRE -4240 2384 -4240 2288
WIRE -4224 2384 -4240 2384
WIRE -4096 2384 -4144 2384
WIRE -4016 2384 -4016 2336
WIRE -3920 2384 -3920 2336
WIRE -3920 2384 -3936 2384
WIRE -3600 2416 -3696 2416
WIRE -3408 2416 -3520 2416
WIRE -5104 2432 -5104 2368
WIRE -4880 2432 -4880 2400
WIRE -3072 2432 -3136 2432
WIRE -2944 2432 -3008 2432
WIRE -4064 2464 -4080 2464
WIRE -3536 2480 -3552 2480
WIRE -4080 2496 -4080 2464
WIRE -2400 2496 -2400 2448
WIRE -2224 2496 -2400 2496
WIRE -4512 2512 -4512 2256
WIRE -4448 2512 -4512 2512
WIRE -4352 2512 -4384 2512
WIRE -4240 2512 -4240 2384
WIRE -4240 2512 -4272 2512
WIRE -4112 2512 -4240 2512
WIRE -3552 2512 -3552 2480
WIRE -2144 2512 -2160 2512
WIRE -2032 2512 -2080 2512
WIRE -1968 2512 -2032 2512
WIRE -1856 2512 -1968 2512
WIRE -3920 2528 -3920 2384
WIRE -3920 2528 -4048 2528
WIRE -3904 2528 -3920 2528
WIRE -3808 2528 -3840 2528
WIRE -3696 2528 -3696 2416
WIRE -3696 2528 -3728 2528
WIRE -3584 2528 -3696 2528
WIRE -2480 2528 -2480 2128
WIRE -2272 2528 -2480 2528
WIRE -2224 2528 -2272 2528
WIRE -1856 2528 -1856 2512
WIRE -4688 2544 -4800 2544
WIRE -4112 2544 -4144 2544
WIRE -3408 2544 -3408 2416
WIRE -3408 2544 -3520 2544
WIRE -3392 2544 -3408 2544
WIRE -3312 2544 -3328 2544
WIRE -3280 2544 -3312 2544
WIRE -3136 2544 -3136 2432
WIRE -3136 2544 -3200 2544
WIRE -3120 2544 -3136 2544
WIRE -2944 2544 -2944 2432
WIRE -2944 2544 -2960 2544
WIRE -2800 2544 -2944 2544
WIRE -2640 2544 -2720 2544
WIRE -4752 2560 -4752 2528
WIRE -3584 2560 -3616 2560
WIRE -2192 2560 -2192 2544
WIRE -4800 2576 -4800 2544
WIRE -4800 2576 -4864 2576
WIRE -4784 2576 -4800 2576
WIRE -4144 2576 -4144 2544
WIRE -4080 2576 -4080 2560
WIRE -4064 2576 -4080 2576
WIRE -2400 2576 -2400 2496
WIRE -4688 2592 -4688 2544
WIRE -4688 2592 -4720 2592
WIRE -4512 2592 -4688 2592
WIRE -3616 2592 -3616 2560
WIRE -3552 2592 -3552 2576
WIRE -3536 2592 -3552 2592
WIRE -1968 2592 -1968 2512
WIRE -4784 2608 -4800 2608
WIRE -3696 2608 -3696 2528
WIRE -3040 2640 -3040 2544
WIRE -3008 2640 -3040 2640
WIRE -2880 2640 -2928 2640
WIRE -1856 2640 -1856 2608
WIRE -4752 2656 -4752 2624
WIRE -4800 2672 -4800 2608
WIRE -3696 2720 -3696 2688
WIRE -3072 2720 -3136 2720
WIRE -2944 2720 -3008 2720
WIRE -2272 2720 -2272 2528
WIRE -2224 2720 -2272 2720
WIRE -2144 2736 -2160 2736
WIRE -2032 2736 -2032 2512
WIRE -2032 2736 -2080 2736
WIRE -2400 2752 -2400 2656
WIRE -2224 2752 -2400 2752
WIRE -1968 2768 -1968 2656
WIRE -1856 2768 -1856 2704
WIRE -2400 2784 -2400 2752
WIRE -2192 2784 -2192 2768
WIRE -3312 2832 -3312 2544
WIRE -3280 2832 -3312 2832
WIRE -3136 2832 -3136 2720
WIRE -3136 2832 -3200 2832
WIRE -3120 2832 -3136 2832
WIRE -2944 2832 -2944 2720
WIRE -2944 2832 -2960 2832
WIRE -2800 2832 -2944 2832
WIRE -2640 2832 -2640 2544
WIRE -2640 2832 -2720 2832
WIRE -2400 2896 -2400 2864
WIRE -3040 2928 -3040 2832
WIRE -2992 2928 -3040 2928
WIRE -2880 2928 -2880 2640
WIRE -2880 2928 -2928 2928
WIRE -3312 3024 -3312 2832
WIRE -3280 3024 -3312 3024
WIRE -3120 3024 -3200 3024
WIRE -2800 3024 -2960 3024
WIRE -2640 3024 -2640 2832
WIRE -2640 3024 -2720 3024
WIRE -3040 3088 -3040 3024
WIRE -2768 3120 -2784 3120
WIRE -2784 3152 -2784 3120
WIRE -3040 3168 -3040 3152
WIRE -2880 3168 -2880 2928
WIRE -2880 3168 -3040 3168
WIRE -2816 3168 -2880 3168
WIRE -2640 3184 -2640 3024
WIRE -2640 3184 -2752 3184
WIRE -2480 3184 -2480 2528
WIRE -2480 3184 -2640 3184
WIRE -3040 3200 -3040 3168
WIRE -2816 3200 -2848 3200
WIRE -2848 3232 -2848 3200
WIRE -2784 3232 -2784 3216
WIRE -2768 3232 -2784 3232
WIRE -2480 3248 -2480 3184
WIRE -3040 3296 -3040 3280
WIRE -2256 3312 -2256 3280
WIRE -2288 3328 -2480 3328
WIRE -2176 3344 -2224 3344
WIRE -2064 3344 -2176 3344
WIRE -2288 3360 -2320 3360
WIRE -3040 3392 -3040 3360
WIRE -2256 3424 -2256 3376
WIRE -2176 3472 -2176 3344
WIRE -2320 3568 -2320 3360
WIRE -2176 3568 -2176 3552
WIRE -2176 3568 -2320 3568
WIRE -2176 3584 -2176 3568
WIRE -2480 3696 -2480 3408
WIRE -2176 3696 -2176 3664
WIRE -4816 4000 -4880 4000
WIRE -4704 4000 -4752 4000
WIRE -4880 4096 -4880 4000
WIRE -4784 4096 -4800 4096
WIRE -4704 4096 -4704 4000
WIRE -2000 4096 -2480 4096
WIRE -4672 4160 -4784 4160
WIRE -5088 4192 -5104 4192
WIRE -4992 4192 -5024 4192
WIRE -4880 4192 -4880 4096
WIRE -4880 4192 -4912 4192
WIRE -4784 4192 -4784 4160
WIRE -4880 4208 -4880 4192
WIRE -4816 4208 -4880 4208
WIRE -4704 4224 -4704 4096
WIRE -4704 4224 -4752 4224
WIRE -4512 4224 -4704 4224
WIRE -4816 4240 -4880 4240
WIRE -4080 4256 -4240 4256
WIRE -3920 4256 -4016 4256
WIRE -5088 4272 -5104 4272
WIRE -4992 4272 -5024 4272
WIRE -4880 4272 -4880 4240
WIRE -4880 4272 -4912 4272
WIRE -4784 4272 -4784 4256
WIRE -4672 4272 -4784 4272
WIRE -4880 4288 -4880 4272
WIRE -3920 4304 -3920 4256
WIRE -3920 4304 -4016 4304
WIRE -5104 4336 -5136 4336
WIRE -2400 4336 -2400 4320
WIRE -4240 4352 -4240 4256
WIRE -4224 4352 -4240 4352
WIRE -4096 4352 -4144 4352
WIRE -4016 4352 -4016 4304
WIRE -3920 4352 -3920 4304
WIRE -3920 4352 -3936 4352
WIRE -3600 4384 -3696 4384
WIRE -3408 4384 -3520 4384
WIRE -5104 4400 -5104 4336
WIRE -4880 4400 -4880 4368
WIRE -3072 4400 -3136 4400
WIRE -2944 4400 -3008 4400
WIRE -4064 4432 -4080 4432
WIRE -3536 4448 -3552 4448
WIRE -4080 4464 -4080 4432
WIRE -2400 4464 -2400 4416
WIRE -2224 4464 -2400 4464
WIRE -4512 4480 -4512 4224
WIRE -4448 4480 -4512 4480
WIRE -4352 4480 -4384 4480
WIRE -4240 4480 -4240 4352
WIRE -4240 4480 -4272 4480
WIRE -4112 4480 -4240 4480
WIRE -3552 4480 -3552 4448
WIRE -2144 4480 -2160 4480
WIRE -2032 4480 -2080 4480
WIRE -1968 4480 -2032 4480
WIRE -1856 4480 -1968 4480
WIRE -3920 4496 -3920 4352
WIRE -3920 4496 -4048 4496
WIRE -3904 4496 -3920 4496
WIRE -3808 4496 -3840 4496
WIRE -3696 4496 -3696 4384
WIRE -3696 4496 -3728 4496
WIRE -3584 4496 -3696 4496
WIRE -2480 4496 -2480 4096
WIRE -2272 4496 -2480 4496
WIRE -2224 4496 -2272 4496
WIRE -1856 4496 -1856 4480
WIRE -4688 4512 -4800 4512
WIRE -4112 4512 -4144 4512
WIRE -3408 4512 -3408 4384
WIRE -3408 4512 -3520 4512
WIRE -3392 4512 -3408 4512
WIRE -3312 4512 -3328 4512
WIRE -3280 4512 -3312 4512
WIRE -3136 4512 -3136 4400
WIRE -3136 4512 -3200 4512
WIRE -3120 4512 -3136 4512
WIRE -2944 4512 -2944 4400
WIRE -2944 4512 -2960 4512
WIRE -2800 4512 -2944 4512
WIRE -2640 4512 -2720 4512
WIRE -4752 4528 -4752 4496
WIRE -3584 4528 -3616 4528
WIRE -2192 4528 -2192 4512
WIRE -4800 4544 -4800 4512
WIRE -4800 4544 -4864 4544
WIRE -4784 4544 -4800 4544
WIRE -4144 4544 -4144 4512
WIRE -4080 4544 -4080 4528
WIRE -4064 4544 -4080 4544
WIRE -2400 4544 -2400 4464
WIRE -4688 4560 -4688 4512
WIRE -4688 4560 -4720 4560
WIRE -4512 4560 -4688 4560
WIRE -3616 4560 -3616 4528
WIRE -3552 4560 -3552 4544
WIRE -3536 4560 -3552 4560
WIRE -1968 4560 -1968 4480
WIRE -4784 4576 -4800 4576
WIRE -3696 4576 -3696 4496
WIRE -3040 4608 -3040 4512
WIRE -3008 4608 -3040 4608
WIRE -2880 4608 -2928 4608
WIRE -1856 4608 -1856 4576
WIRE -4752 4624 -4752 4592
WIRE -4800 4640 -4800 4576
WIRE -3696 4688 -3696 4656
WIRE -3072 4688 -3136 4688
WIRE -2944 4688 -3008 4688
WIRE -2272 4688 -2272 4496
WIRE -2224 4688 -2272 4688
WIRE -2144 4704 -2160 4704
WIRE -2032 4704 -2032 4480
WIRE -2032 4704 -2080 4704
WIRE -2400 4720 -2400 4624
WIRE -2224 4720 -2400 4720
WIRE -1968 4736 -1968 4624
WIRE -1856 4736 -1856 4672
WIRE -2400 4752 -2400 4720
WIRE -2192 4752 -2192 4736
WIRE -3312 4800 -3312 4512
WIRE -3280 4800 -3312 4800
WIRE -3136 4800 -3136 4688
WIRE -3136 4800 -3200 4800
WIRE -3120 4800 -3136 4800
WIRE -2944 4800 -2944 4688
WIRE -2944 4800 -2960 4800
WIRE -2800 4800 -2944 4800
WIRE -2640 4800 -2640 4512
WIRE -2640 4800 -2720 4800
WIRE -2400 4864 -2400 4832
WIRE -3040 4896 -3040 4800
WIRE -2992 4896 -3040 4896
WIRE -2880 4896 -2880 4608
WIRE -2880 4896 -2928 4896
WIRE -3312 4992 -3312 4800
WIRE -3280 4992 -3312 4992
WIRE -3120 4992 -3200 4992
WIRE -2800 4992 -2960 4992
WIRE -2640 4992 -2640 4800
WIRE -2640 4992 -2720 4992
WIRE -3040 5056 -3040 4992
WIRE -2768 5088 -2784 5088
WIRE -2784 5120 -2784 5088
WIRE -3040 5136 -3040 5120
WIRE -2880 5136 -2880 4896
WIRE -2880 5136 -3040 5136
WIRE -2816 5136 -2880 5136
WIRE -2640 5152 -2640 4992
WIRE -2640 5152 -2752 5152
WIRE -2480 5152 -2480 4496
WIRE -2480 5152 -2640 5152
WIRE -3040 5168 -3040 5136
WIRE -2816 5168 -2848 5168
WIRE -2848 5200 -2848 5168
WIRE -2784 5200 -2784 5184
WIRE -2768 5200 -2784 5200
WIRE -2480 5216 -2480 5152
WIRE -3040 5264 -3040 5248
WIRE -2256 5280 -2256 5248
WIRE -2288 5296 -2480 5296
WIRE -2176 5312 -2224 5312
WIRE -2064 5312 -2176 5312
WIRE -2288 5328 -2320 5328
WIRE -3040 5360 -3040 5328
WIRE -2256 5392 -2256 5344
WIRE -2176 5440 -2176 5312
WIRE -2320 5536 -2320 5328
WIRE -2176 5536 -2176 5520
WIRE -2176 5536 -2320 5536
WIRE -2176 5552 -2176 5536
WIRE -2480 5664 -2480 5376
WIRE -2176 5664 -2176 5632
FLAG 1280 -272 -Power
IOPIN 1280 -272 Out
FLAG 1184 -272 +Power
IOPIN 1184 -272 Out
FLAG 1184 -176 0
FLAG 1280 -176 0
FLAG 784 -352 +Power
IOPIN 784 -352 In
FLAG 784 480 -Power
IOPIN 784 480 In
FLAG 1376 288 0
FLAG -288 48 Ch1
IOPIN -288 48 In
FLAG 0 128 0
FLAG 96 0 +Power
IOPIN 96 0 In
FLAG 96 112 -Power
IOPIN 96 112 In
FLAG 336 -96 FB
IOPIN 336 -96 Out
FLAG 752 48 FB
IOPIN 752 48 In
FLAG 304 272 0
FLAG -288 144 Ch2
IOPIN -288 144 In
FLAG -288 240 Ch3
IOPIN -288 240 In
FLAG -288 336 Ch4
IOPIN -288 336 In
FLAG 1264 288 0
FLAG 976 48 Load
FLAG -2256 -688 +Power
IOPIN -2256 -688 In
FLAG -2256 -832 -Power
IOPIN -2256 -832 In
FLAG -2064 -768 Ch1
IOPIN -2064 -768 Out
FLAG -2176 -416 0
FLAG -2480 -416 0
FLAG -2192 -1632 +Power
IOPIN -2192 -1632 In
FLAG -2400 -1216 -Power
IOPIN -2400 -1216 In
FLAG -2192 -1552 0
FLAG -2192 -1328 0
FLAG -2192 -1408 +Power
IOPIN -2192 -1408 In
FLAG -2400 -1760 +Power
IOPIN -2400 -1760 In
FLAG -1856 -1344 0
FLAG -1968 -1344 0
FLAG -2000 -1984 Ch1_phones
IOPIN -2000 -1984 Out
FLAG -2768 -992 +Power
IOPIN -2768 -992 In
FLAG -2768 -880 -Power
IOPIN -2768 -880 In
FLAG -2848 -880 0
FLAG -3040 -720 0
FLAG -3536 -1632 +Power
IOPIN -3536 -1632 In
FLAG -3536 -1520 -Power
IOPIN -3536 -1520 In
FLAG -3616 -1520 0
FLAG -3696 -1392 0
FLAG -4064 -1648 +Power
IOPIN -4064 -1648 In
FLAG -4064 -1536 -Power
IOPIN -4064 -1536 In
FLAG -4144 -1536 0
FLAG -4672 -1920 +Power
IOPIN -4672 -1920 In
FLAG -4672 -1808 -Power
IOPIN -4672 -1808 In
FLAG -4880 -1680 0
FLAG -5104 -1888 MIC-2
IOPIN -5104 -1888 In
FLAG -5104 -1808 MIC-3
IOPIN -5104 -1808 In
FLAG -5136 -1744 MIC-1
IOPIN -5136 -1744 In
FLAG -5104 -1680 0
FLAG 656 -1184 MIC-2
IOPIN 656 -1184 Out
FLAG 736 -1184 MIC-3
IOPIN 736 -1184 Out
FLAG 656 -1040 0
FLAG 736 -1040 0
FLAG -4752 -1456 +Power
IOPIN -4752 -1456 In
FLAG -4752 -1584 -Power
IOPIN -4752 -1584 In
FLAG -4800 -1440 0
FLAG 336 -1184 INST
IOPIN 336 -1184 Out
FLAG 336 -1040 0
FLAG -4864 -1536 INST
IOPIN -4864 -1536 In
FLAG 1408 1696 0
FLAG 1296 1696 0
FLAG 992 1328 Load2
FLAG 784 736 +Power2
IOPIN 784 736 In
FLAG -880 1216 +Power2
IOPIN -880 1216 In
FLAG -1232 1152 0
FLAG -1216 1312 Ch1_phones
IOPIN -1216 1312 In
FLAG -1216 1408 Ch2_phones
IOPIN -1216 1408 In
FLAG -1216 1504 Ch3_phones
IOPIN -1216 1504 In
FLAG -1216 1600 Ch4_phones
IOPIN -1216 1600 In
FLAG 976 272 0
FLAG 992 1504 0
FLAG -4512 -1856 MIC
FLAG -3920 -1824 Preamp
FLAG -2560 -928 Tones
FLAG -2112 -768 Fader
FLAG -2256 1312 +Power
IOPIN -2256 1312 In
FLAG -2256 1168 -Power
IOPIN -2256 1168 In
FLAG -2064 1232 Ch2
IOPIN -2064 1232 Out
FLAG -2176 1584 0
FLAG -2480 1584 0
FLAG -2192 368 +Power
IOPIN -2192 368 In
FLAG -2400 784 -Power
IOPIN -2400 784 In
FLAG -2192 448 0
FLAG -2192 672 0
FLAG -2192 592 +Power
IOPIN -2192 592 In
FLAG -2400 240 +Power
IOPIN -2400 240 In
FLAG -1856 656 0
FLAG -1968 656 0
FLAG -2000 16 Ch2_phones
IOPIN -2000 16 Out
FLAG -2768 1008 +Power
IOPIN -2768 1008 In
FLAG -2768 1120 -Power
IOPIN -2768 1120 In
FLAG -2848 1120 0
FLAG -3040 1280 0
FLAG -3536 368 +Power
IOPIN -3536 368 In
FLAG -3536 480 -Power
IOPIN -3536 480 In
FLAG -3616 480 0
FLAG -3696 608 0
FLAG -4064 352 +Power
IOPIN -4064 352 In
FLAG -4064 464 -Power
IOPIN -4064 464 In
FLAG -4144 464 0
FLAG -4672 80 +Power
IOPIN -4672 80 In
FLAG -4672 192 -Power
IOPIN -4672 192 In
FLAG -4880 320 0
FLAG -5104 112 MIC-2
IOPIN -5104 112 In
FLAG -5104 192 MIC-3
IOPIN -5104 192 In
FLAG -5136 256 MIC-1
IOPIN -5136 256 In
FLAG -5104 320 0
FLAG -4752 544 +Power
IOPIN -4752 544 In
FLAG -4752 416 -Power
IOPIN -4752 416 In
FLAG -4800 560 0
FLAG -4864 464 INST
IOPIN -4864 464 In
FLAG -2256 3424 +Power
IOPIN -2256 3424 In
FLAG -2256 3280 -Power
IOPIN -2256 3280 In
FLAG -2064 3344 Ch3
IOPIN -2064 3344 Out
FLAG -2176 3696 0
FLAG -2480 3696 0
FLAG -2192 2480 +Power
IOPIN -2192 2480 In
FLAG -2400 2896 -Power
IOPIN -2400 2896 In
FLAG -2192 2560 0
FLAG -2192 2784 0
FLAG -2192 2704 +Power
IOPIN -2192 2704 In
FLAG -2400 2352 +Power
IOPIN -2400 2352 In
FLAG -1856 2768 0
FLAG -1968 2768 0
FLAG -2000 2128 Ch3_phones
IOPIN -2000 2128 Out
FLAG -2768 3120 +Power
IOPIN -2768 3120 In
FLAG -2768 3232 -Power
IOPIN -2768 3232 In
FLAG -2848 3232 0
FLAG -3040 3392 0
FLAG -3536 2480 +Power
IOPIN -3536 2480 In
FLAG -3536 2592 -Power
IOPIN -3536 2592 In
FLAG -3616 2592 0
FLAG -3696 2720 0
FLAG -4064 2464 +Power
IOPIN -4064 2464 In
FLAG -4064 2576 -Power
IOPIN -4064 2576 In
FLAG -4144 2576 0
FLAG -4672 2192 +Power
IOPIN -4672 2192 In
FLAG -4672 2304 -Power
IOPIN -4672 2304 In
FLAG -4880 2432 0
FLAG -5104 2224 MIC-2
IOPIN -5104 2224 In
FLAG -5104 2304 MIC-3
IOPIN -5104 2304 In
FLAG -5136 2368 MIC-1
IOPIN -5136 2368 In
FLAG -5104 2432 0
FLAG -4752 2656 +Power
IOPIN -4752 2656 In
FLAG -4752 2528 -Power
IOPIN -4752 2528 In
FLAG -4800 2672 0
FLAG -4864 2576 INST
IOPIN -4864 2576 In
FLAG -2256 5392 +Power
IOPIN -2256 5392 In
FLAG -2256 5248 -Power
IOPIN -2256 5248 In
FLAG -2064 5312 Ch4
IOPIN -2064 5312 Out
FLAG -2176 5664 0
FLAG -2480 5664 0
FLAG -2192 4448 +Power
IOPIN -2192 4448 In
FLAG -2400 4864 -Power
IOPIN -2400 4864 In
FLAG -2192 4528 0
FLAG -2192 4752 0
FLAG -2192 4672 +Power
IOPIN -2192 4672 In
FLAG -2400 4320 +Power
IOPIN -2400 4320 In
FLAG -1856 4736 0
FLAG -1968 4736 0
FLAG -2000 4096 Ch4_phones
IOPIN -2000 4096 Out
FLAG -2768 5088 +Power
IOPIN -2768 5088 In
FLAG -2768 5200 -Power
IOPIN -2768 5200 In
FLAG -2848 5200 0
FLAG -3040 5360 0
FLAG -3536 4448 +Power
IOPIN -3536 4448 In
FLAG -3536 4560 -Power
IOPIN -3536 4560 In
FLAG -3616 4560 0
FLAG -3696 4688 0
FLAG -4064 4432 +Power
IOPIN -4064 4432 In
FLAG -4064 4544 -Power
IOPIN -4064 4544 In
FLAG -4144 4544 0
FLAG -4672 4160 +Power
IOPIN -4672 4160 In
FLAG -4672 4272 -Power
IOPIN -4672 4272 In
FLAG -4880 4400 0
FLAG -5104 4192 MIC-2
IOPIN -5104 4192 In
FLAG -5104 4272 MIC-3
IOPIN -5104 4272 In
FLAG -5136 4336 MIC-1
IOPIN -5136 4336 In
FLAG -5104 4400 0
FLAG -4752 4624 +Power
IOPIN -4752 4624 In
FLAG -4752 4496 -Power
IOPIN -4752 4496 In
FLAG -4800 4640 0
FLAG -4864 4544 INST
IOPIN -4864 4544 In