Version 4
SHEET 1 960 680
WIRE 192 128 128 128
WIRE 192 176 192 128
WIRE 480 176 400 176
WIRE 400 192 400 176
WIRE 368 208 224 208
WIRE 464 224 432 224
WIRE 592 224 464 224
WIRE 368 240 352 240
WIRE -304 288 -304 256
WIRE -224 288 -224 256
WIRE 400 288 400 256
WIRE 480 288 400 288
WIRE 464 304 464 224
WIRE 352 400 352 240
WIRE 464 400 464 384
WIRE 464 400 352 400
WIRE 464 416 464 400
WIRE -304 480 -304 464
WIRE 192 496 192 256
WIRE 464 528 464 496
FLAG 464 528 0
FLAG 192 496 0
FLAG 480 176 -Power
IOPIN 480 176 In
FLAG 480 288 +Power
IOPIN 480 288 In
FLAG 128 128 Vs
IOPIN 128 128 In
FLAG -304 176 +Power
IOPIN -304 176 Out
FLAG -224 176 -Power
IOPIN -224 176 Out
FLAG -304 288 0
FLAG -224 288 0
FLAG -304 480 0
FLAG -304 384 Vs
IOPIN -304 384 Out
SYMBOL OpAmps\\UniversalOpAmp 400 224 M180
SYMATTR InstName U1
SYMBOL res 448 288 R0
SYMATTR InstName Rf
SYMATTR Value 820
SYMBOL res 448 400 R0
SYMATTR InstName Rg
SYMATTR Value 820
SYMBOL voltage -304 160 R0
WINDOW 123 0 0 Left 0
WINDOW 39 0 0 Left 0
SYMATTR InstName V1
SYMATTR Value 15
SYMBOL voltage -224 272 M180
WINDOW 0 24 96 Left 2
WINDOW 3 24 16 Left 2
WINDOW 123 0 0 Left 0
WINDOW 39 0 0 Left 0
SYMATTR InstName V2
SYMATTR Value 15
SYMBOL voltage -304 368 R0
WINDOW 123 0 0 Left 0
WINDOW 39 0 0 Left 0
SYMATTR InstName V3
SYMATTR Value SINE(0 1.7367 1k)
SYMBOL pot_ 208 160 M0
SYMATTR InstName U3
SYMATTR Value2 wiper={volume}
TEXT 368 32 Left 2 !;.param volume=.5
TEXT 528 520 Left 2 !.tran 0 .001 0 .1
TEXT 368 64 Left 2 !.step param volume .001 .99 .1
