Version 4
SHEET 1 1944 728
WIRE 592 0 432 0
WIRE 720 0 592 0
WIRE 864 0 720 0
WIRE 944 0 864 0
WIRE 1264 0 1200 0
WIRE 1408 0 1264 0
WIRE 1488 0 1408 0
WIRE 1408 32 1408 0
WIRE 864 48 864 0
WIRE 320 64 48 64
WIRE 336 64 320 64
WIRE 432 64 432 0
WIRE 432 64 400 64
WIRE 448 64 432 64
WIRE 528 64 512 64
WIRE 592 64 592 0
WIRE 1264 64 1264 0
WIRE 48 96 48 64
WIRE 1488 112 1488 0
WIRE 592 144 592 128
WIRE 592 144 560 144
WIRE 720 144 592 144
WIRE 864 144 864 112
WIRE 864 144 720 144
WIRE 1072 144 1072 96
WIRE 1072 144 864 144
WIRE 1264 144 1264 128
WIRE 1264 144 1072 144
WIRE 1408 144 1408 96
WIRE 1408 144 1264 144
WIRE 528 160 528 64
WIRE 528 160 304 160
WIRE 720 160 720 144
WIRE 592 176 592 144
WIRE 1264 176 1264 144
WIRE 1408 176 1408 144
WIRE 864 192 864 144
WIRE 48 208 48 176
WIRE 48 208 -48 208
WIRE 1072 208 1072 144
WIRE 48 240 48 208
WIRE 320 240 320 64
WIRE 336 240 320 240
WIRE 432 240 400 240
WIRE 448 240 432 240
WIRE 528 240 528 160
WIRE 528 240 512 240
WIRE -48 272 -48 208
WIRE 432 304 432 240
WIRE 592 304 592 240
WIRE 592 304 432 304
WIRE 720 304 592 304
WIRE 864 304 864 256
WIRE 864 304 720 304
WIRE 944 304 864 304
WIRE 1264 304 1264 240
WIRE 1264 304 1200 304
WIRE 1408 304 1408 240
WIRE 1408 304 1264 304
WIRE 1488 304 1488 192
WIRE 1488 304 1408 304
WIRE 48 336 48 320
WIRE 304 336 304 160
WIRE 304 336 48 336
WIRE 560 352 560 144
FLAG -48 272 0
FLAG 560 352 0
SYMBOL voltage 48 80 R0
WINDOW 123 0 0 Left 0
WINDOW 39 0 0 Left 0
SYMATTR InstName V1
SYMATTR Value SINE(0 21.213 50)
SYMBOL voltage 48 336 R180
WINDOW 0 24 96 Left 2
WINDOW 3 24 16 Left 2
WINDOW 123 0 0 Left 0
WINDOW 39 0 0 Left 0
SYMATTR InstName V2
SYMATTR Value SINE(0 21.213 50 0 0 180)
SYMBOL diode 336 80 R270
WINDOW 0 32 32 VTop 2
WINDOW 3 0 32 VBottom 2
SYMATTR InstName D1
SYMBOL diode 512 80 M270
WINDOW 0 32 32 VTop 2
WINDOW 3 0 32 VBottom 2
SYMATTR InstName D2
SYMBOL diode 400 256 M270
WINDOW 0 32 32 VTop 2
WINDOW 3 0 32 VBottom 2
SYMATTR InstName D3
SYMBOL diode 448 256 R270
WINDOW 0 32 32 VTop 2
WINDOW 3 0 32 VBottom 2
SYMATTR InstName D4
SYMBOL polcap 576 64 R0
SYMATTR InstName C1
SYMATTR Value 4700µ
SYMBOL polcap 576 176 R0
SYMATTR InstName C2
SYMATTR Value 4700µ
SYMBOL res 704 -16 R0
SYMATTR InstName R1
SYMATTR Value 820
SYMBOL LED 704 80 R0
WINDOW 3 30 53 Left 2
SYMATTR InstName D5
SYMBOL res 704 144 R0
SYMATTR InstName R2
SYMATTR Value 820
SYMBOL LED 704 240 R0
SYMATTR InstName D6
SYMBOL cap 848 48 R0
SYMATTR InstName C3
SYMATTR Value 100n
SYMBOL cap 848 192 R0
SYMATTR InstName C4
SYMATTR Value 100n
SYMBOL ZZZ\\VolReg\\LM7815 1072 0 R0
SYMATTR InstName U1
SYMBOL polcap 1248 64 R0
SYMATTR InstName C5
SYMATTR Value 100µ
SYMBOL polcap 1248 176 R0
SYMATTR InstName C6
SYMATTR Value 100µ
SYMBOL ZZZ\\VolReg\\7915 1072 304 M180
SYMATTR InstName U2
SYMBOL res 1472 96 R0
SYMATTR InstName R3
SYMATTR Value 30
SYMBOL diode 1424 96 R180
WINDOW 0 24 64 Left 2
WINDOW 3 24 0 Left 2
SYMATTR InstName D7
SYMBOL diode 1424 240 R180
WINDOW 0 24 64 Left 2
WINDOW 3 24 0 Left 2
SYMATTR InstName D8
TEXT -80 144 Left 2 ;Transf.
TEXT -232 376 Left 2 !.tran 0 1 0 .1
