Version 4
SHEET 1 880 680
WIRE 320 128 304 128
WIRE 304 160 304 128
WIRE -160 176 -176 176
WIRE 0 176 -16 176
WIRE 80 176 0 176
WIRE 144 176 80 176
WIRE 272 176 224 176
WIRE 80 192 80 176
WIRE 448 192 336 192
WIRE 480 192 448 192
WIRE 560 192 480 192
WIRE 688 192 640 192
WIRE -496 208 -496 192
WIRE -416 208 -416 192
WIRE 272 208 256 208
WIRE 480 208 480 192
WIRE 0 224 0 176
WIRE 304 256 304 224
WIRE 320 256 304 256
WIRE 688 256 688 192
WIRE 0 320 0 288
WIRE 80 320 80 272
WIRE 80 320 0 320
WIRE 96 320 80 320
WIRE 256 320 256 208
WIRE 256 320 240 320
WIRE 304 320 256 320
WIRE 448 320 448 192
WIRE 448 320 384 320
WIRE 80 368 80 320
WIRE 480 368 480 352
WIRE 688 368 688 336
WIRE -464 432 -464 416
FLAG 320 256 +Power
IOPIN 320 256 In
FLAG 80 368 0
FLAG -496 112 +Power
IOPIN -496 112 Out
FLAG -416 112 -Power
IOPIN -416 112 Out
FLAG -496 208 0
FLAG -416 208 0
FLAG -176 176 Vs
IOPIN -176 176 In
FLAG -464 336 Vs
IOPIN -464 336 Out
FLAG -464 432 0
FLAG 320 128 -Power
IOPIN 320 128 In
FLAG 480 368 0
FLAG 688 368 0
SYMBOL OpAmps\\UniversalOpAmp 304 192 M180
SYMATTR InstName U1
SYMBOL res 0 160 R90
WINDOW 0 0 56 VBottom 2
WINDOW 3 32 56 VTop 2
SYMATTR InstName Ri
SYMATTR Value 1k
SYMBOL voltage -496 96 R0
WINDOW 123 0 0 Left 0
WINDOW 39 0 0 Left 0
SYMATTR InstName V1
SYMATTR Value 15
SYMBOL voltage -416 208 M180
WINDOW 123 0 0 Left 0
WINDOW 39 0 0 Left 0
SYMATTR InstName V2
SYMATTR Value 15
SYMBOL voltage -464 320 R0
WINDOW 123 0 0 Left 0
WINDOW 39 0 0 Left 0
SYMATTR InstName V3
SYMATTR Value SINE(0 1.736 1k)
SYMBOL polcap -160 192 R270
WINDOW 0 32 32 VTop 2
WINDOW 3 0 32 VBottom 2
SYMATTR InstName C1
SYMATTR Value 2.2µ
SYMBOL cap -16 224 R0
SYMATTR InstName C2
SYMATTR Value 220p
SYMBOL polcap 160 336 M270
WINDOW 0 32 32 VTop 2
WINDOW 3 0 32 VBottom 2
SYMATTR InstName C3
SYMATTR Value 47µ
SYMBOL res 64 176 R0
SYMATTR InstName R2
SYMATTR Value 22k
SYMBOL res 256 304 R90
WINDOW 0 0 56 VBottom 2
WINDOW 3 32 56 VTop 2
SYMATTR InstName R3
SYMATTR Value 1k
SYMBOL res 240 160 R90
WINDOW 0 0 56 VBottom 2
WINDOW 3 32 56 VTop 2
SYMATTR InstName R1
SYMATTR Value 1k
SYMBOL res 400 304 R90
WINDOW 0 0 56 VBottom 2
WINDOW 3 32 56 VTop 2
SYMATTR InstName R4
SYMATTR Value 17k
SYMBOL cap 464 208 R0
SYMATTR InstName C4
SYMATTR Value 100n
SYMBOL res 464 256 R0
SYMATTR InstName R5
SYMATTR Value 10
SYMBOL res 672 240 R0
SYMATTR InstName RL
SYMATTR Value 8
SYMBOL res 656 176 R90
WINDOW 0 0 56 VBottom 2
WINDOW 3 32 56 VTop 2
SYMATTR InstName R6
SYMATTR Value 120
TEXT 168 496 Left 2 !.tran 0 .001 0 .1
