Version 4
SHEET 1 880 680
WIRE 368 -80 304 -80
WIRE 304 -64 304 -80
WIRE 144 -32 128 -32
WIRE 256 -32 224 -32
WIRE 368 -32 368 -80
WIRE 368 -32 336 -32
WIRE 240 64 224 64
WIRE 224 96 224 64
WIRE 16 112 -16 112
WIRE 128 112 128 -32
WIRE 128 112 96 112
WIRE 192 112 128 112
WIRE 368 128 368 -32
WIRE 368 128 256 128
WIRE 416 128 368 128
WIRE 192 144 176 144
WIRE -352 160 -352 144
WIRE -272 160 -272 144
WIRE 416 160 416 128
WIRE 176 176 176 144
WIRE 224 192 224 160
WIRE 240 192 224 192
WIRE 16 208 -16 208
WIRE 128 208 128 112
WIRE 128 208 96 208
WIRE 512 208 448 208
WIRE 416 272 416 240
WIRE -352 352 -352 336
WIRE -272 352 -272 336
FLAG 240 64 +Power
IOPIN 240 64 In
FLAG 240 192 -Power
IOPIN 240 192 In
FLAG 176 176 0
FLAG 416 272 0
FLAG -16 112 Ch1
IOPIN -16 112 In
FLAG -16 208 Ch2
IOPIN -16 208 In
FLAG 512 208 Out
IOPIN 512 208 Out
FLAG -352 64 +Power
IOPIN -352 64 Out
FLAG -352 160 0
FLAG -272 160 0
FLAG -352 352 0
FLAG -272 64 -Power
IOPIN -272 64 Out
FLAG -352 256 Ch1
IOPIN -352 256 Out
FLAG -272 352 0
FLAG -272 256 Ch2
IOPIN -272 256 Out
SYMBOL res 112 96 R90
WINDOW 0 0 56 VBottom 2
WINDOW 3 32 56 VTop 2
SYMATTR InstName R1
SYMATTR Value 2.7k
SYMBOL OpAmps\\UniversalOpAmp 224 128 R0
SYMATTR InstName U1
SYMBOL res 240 -48 R90
WINDOW 0 0 56 VBottom 2
WINDOW 3 32 56 VTop 2
SYMATTR InstName R2
SYMATTR Value 820
SYMBOL res 112 192 R90
WINDOW 0 0 56 VBottom 2
WINDOW 3 32 56 VTop 2
SYMATTR InstName R3
SYMATTR Value 2.7k
SYMBOL voltage -352 48 R0
WINDOW 123 0 0 Left 0
WINDOW 39 0 0 Left 0
SYMATTR InstName V1
SYMATTR Value 15
SYMBOL voltage -272 160 M180
WINDOW 0 24 96 Left 2
WINDOW 3 24 16 Left 2
WINDOW 123 0 0 Left 0
WINDOW 39 0 0 Left 0
SYMATTR InstName V2
SYMATTR Value 15
SYMBOL voltage -352 240 R0
WINDOW 3 -218 102 Left 2
WINDOW 123 0 0 Left 0
WINDOW 39 0 0 Left 0
SYMATTR Value AC 1.737
SYMATTR InstName V3
SYMBOL voltage -272 240 R0
WINDOW 123 0 0 Left 0
WINDOW 39 0 0 Left 0
SYMATTR InstName V4
SYMATTR Value 0
SYMBOL pot_ 352 -48 R90
SYMATTR InstName U2
SYMATTR Value2 wiper={gain}
SYMBOL pot_ 432 256 R180
SYMATTR InstName U3
SYMATTR Value2 wiper={fader}
TEXT 456 -104 Left 2 !.step param gain .01 .99 .1
TEXT 456 -64 Left 2 !.step param fader .01 .99 .1
TEXT -576 376 Left 2 !.ac dec 100 10 44k
