Version 4.1
SHEET 1 924 680
WIRE 144 -32 128 -32
WIRE 240 -32 224 -32
WIRE 416 -32 400 -32
WIRE 240 64 224 64
WIRE 224 96 224 64
WIRE 16 112 -16 112
WIRE 128 112 128 -32
WIRE 128 112 96 112
WIRE 192 112 128 112
WIRE 416 128 416 -32
WIRE 416 128 256 128
WIRE 192 144 176 144
WIRE 416 144 416 128
WIRE -560 176 -560 160
WIRE -480 176 -480 160
WIRE 176 176 176 144
WIRE 224 192 224 160
WIRE 240 192 224 192
WIRE 16 208 -16 208
WIRE 128 208 128 112
WIRE 128 208 96 208
WIRE 480 224 416 224
WIRE 16 304 -16 304
WIRE 128 304 128 208
WIRE 128 304 96 304
WIRE 416 336 416 304
WIRE -560 368 -560 352
WIRE -480 368 -480 352
WIRE 16 400 -16 400
WIRE 128 400 128 304
WIRE 128 400 96 400
WIRE -560 576 -560 560
WIRE -480 576 -480 560
FLAG 240 64 +Power
IOPIN 240 64 In
FLAG 240 192 -Power
IOPIN 240 192 In
FLAG 176 176 0
FLAG 416 336 0
FLAG -16 112 Ch1
IOPIN -16 112 In
FLAG -16 208 Ch2
IOPIN -16 208 In
FLAG 480 224 Out
IOPIN 480 224 Out
FLAG -560 80 +Power
IOPIN -560 80 Out
FLAG -560 176 0
FLAG -480 176 0
FLAG -560 368 0
FLAG -480 80 -Power
IOPIN -480 80 Out
FLAG -560 272 Ch1
IOPIN -560 272 Out
FLAG -480 368 0
FLAG -480 272 Ch2
IOPIN -480 272 Out
FLAG -16 304 Ch3
IOPIN -16 304 In
FLAG -16 400 Ch4
IOPIN -16 400 In
FLAG -560 576 0
FLAG -560 480 Ch3
IOPIN -560 480 Out
FLAG -480 576 0
FLAG -480 480 Ch4
IOPIN -480 480 Out
SYMBOL res 112 96 R90
WINDOW 0 0 56 VBottom 2
WINDOW 3 32 56 VTop 2
SYMATTR InstName R1
SYMATTR Value 2.7k
SYMBOL OpAmps\\UniversalOpAmp 224 128 R0
SYMATTR InstName U1
SYMBOL res 240 -48 R90
WINDOW 0 0 56 VBottom 2
WINDOW 3 32 56 VTop 2
SYMATTR InstName R2
SYMATTR Value 1k
SYMBOL res 112 192 R90
WINDOW 0 0 56 VBottom 2
WINDOW 3 32 56 VTop 2
SYMATTR InstName R3
SYMATTR Value 2.7k
SYMBOL voltage -560 64 R0
WINDOW 123 0 0 Left 0
WINDOW 39 0 0 Left 0
SYMATTR InstName V1
SYMATTR Value 15
SYMBOL voltage -480 176 M180
WINDOW 0 24 96 Left 2
WINDOW 3 24 16 Left 2
WINDOW 123 0 0 Left 0
WINDOW 39 0 0 Left 0
SYMATTR InstName V2
SYMATTR Value 15
SYMBOL voltage -560 256 R0
WINDOW 3 -221 94 Left 2
WINDOW 123 0 0 Left 0
WINDOW 39 0 0 Left 0
SYMATTR Value AC 0.43416
SYMATTR InstName V3
SYMBOL voltage -480 256 R0
WINDOW 123 0 0 Left 0
WINDOW 39 0 0 Left 0
SYMATTR InstName V4
SYMATTR Value AC 0.43416
SYMBOL res 336 -48 R90
WINDOW 0 0 56 VBottom 2
WINDOW 3 32 56 VTop 2
SYMATTR InstName R4
SYMATTR Value {Rf1}
SYMBOL res 416 -48 R90
WINDOW 0 0 56 VBottom 2
WINDOW 3 32 56 VTop 2
SYMATTR InstName R5
SYMATTR Value {Rf2}
SYMBOL res 400 128 R0
SYMATTR InstName R6
SYMATTR Value {Rv1}
SYMBOL res 400 208 R0
SYMATTR InstName R7
SYMATTR Value {Rv2}
SYMBOL res 112 288 R90
WINDOW 0 0 56 VBottom 2
WINDOW 3 32 56 VTop 2
SYMATTR InstName R8
SYMATTR Value 2.7k
SYMBOL res 112 384 R90
WINDOW 0 0 56 VBottom 2
WINDOW 3 32 56 VTop 2
SYMATTR InstName R9
SYMATTR Value 2.7k
SYMBOL voltage -560 464 R0
WINDOW 3 -221 94 Left 2
WINDOW 123 0 0 Left 0
WINDOW 39 0 0 Left 0
SYMATTR Value AC 0.43416
SYMATTR InstName V5
SYMBOL voltage -480 464 R0
WINDOW 123 0 0 Left 0
WINDOW 39 0 0 Left 0
SYMATTR InstName V6
SYMATTR Value AC 0.43416
TEXT 200 -104 Left 2 !.step param gain .01 .99 .1
TEXT 568 184 Left 2 !.step param fader .01 .99 .1
TEXT 200 -136 Left 2 !.param Rf1=RVf*gain
TEXT 568 152 Left 2 !.param Rv1=10k*fader
TEXT 200 -168 Left 2 !.param Rf2=RVf*(1-gain)
TEXT 568 120 Left 2 !.param Rv2=10k*(1-fader)
TEXT 200 -200 Left 2 !.param RVf=10k
TEXT 264 504 Left 2 !.ac dec 100 10 44k
