Version 4.1
SHEET 1 1816 728
WIRE 496 0 336 0
WIRE 672 0 496 0
WIRE 784 0 672 0
WIRE 880 0 784 0
WIRE 1216 0 1136 0
WIRE 1312 0 1216 0
WIRE 1424 0 1312 0
WIRE 1216 32 1216 0
WIRE 224 48 64 48
WIRE 784 48 784 0
WIRE 1312 48 1312 0
WIRE 224 64 224 48
WIRE 240 64 224 64
WIRE 336 64 336 0
WIRE 336 64 304 64
WIRE 352 64 336 64
WIRE 432 64 416 64
WIRE 496 64 496 0
WIRE 0 112 -128 112
WIRE 1424 112 1424 0
WIRE 64 144 64 128
WIRE 144 144 64 144
WIRE 496 144 496 128
WIRE 496 144 464 144
WIRE 672 144 496 144
WIRE 784 144 784 112
WIRE 784 144 672 144
WIRE 1008 144 1008 96
WIRE 1008 144 784 144
WIRE 1216 144 1216 96
WIRE 1216 144 1008 144
WIRE 1312 144 1312 112
WIRE 1312 144 1216 144
WIRE 64 160 64 144
WIRE 432 160 432 64
WIRE 432 160 192 160
WIRE 496 176 496 144
WIRE 784 176 784 144
WIRE 0 192 -128 192
WIRE 1008 208 1008 144
WIRE 1216 208 1216 144
WIRE 1312 208 1312 144
WIRE 192 240 192 160
WIRE 192 240 64 240
WIRE 224 240 224 64
WIRE 240 240 224 240
WIRE 336 240 304 240
WIRE 352 240 336 240
WIRE 432 240 432 160
WIRE 432 240 416 240
WIRE 144 288 144 144
WIRE 336 304 336 240
WIRE 496 304 496 240
WIRE 496 304 336 304
WIRE 672 304 672 288
WIRE 672 304 496 304
WIRE 784 304 784 240
WIRE 784 304 672 304
WIRE 880 304 784 304
WIRE 1216 304 1216 272
WIRE 1216 304 1136 304
WIRE 1312 304 1312 272
WIRE 1312 304 1216 304
WIRE 1424 304 1424 192
WIRE 1424 304 1312 304
WIRE 464 352 464 144
FLAG 464 352 0
FLAG 144 288 0
SYMBOL diode 240 80 R270
WINDOW 0 32 32 VTop 2
WINDOW 3 0 32 VBottom 2
SYMATTR InstName D1
SYMBOL diode 416 80 M270
WINDOW 0 32 32 VTop 2
WINDOW 3 0 32 VBottom 2
SYMATTR InstName D2
SYMBOL diode 304 256 M270
WINDOW 0 32 32 VTop 2
WINDOW 3 0 32 VBottom 2
SYMATTR InstName D3
SYMBOL diode 352 256 R270
WINDOW 0 32 32 VTop 2
WINDOW 3 0 32 VBottom 2
SYMATTR InstName D4
SYMBOL polcap 480 64 R0
SYMATTR InstName C1
SYMATTR Value 12000µ
SYMBOL polcap 480 176 R0
SYMATTR InstName C2
SYMATTR Value 12000µ
SYMBOL voltage -128 96 M0
WINDOW 123 0 0 Left 0
WINDOW 39 24 124 Left 2
SYMATTR SpiceLine Rser=.1
SYMATTR InstName V1
SYMATTR Value SINE(0 311.127 50)
SYMBOL ind -16 208 M180
WINDOW 0 -45 82 Left 2
WINDOW 3 -58 61 Left 2
SYMATTR InstName L1
SYMATTR Value {Lp}
SYMATTR SpiceLine Rser=1m
SYMBOL ind 80 144 R180
WINDOW 0 -37 72 Left 2
WINDOW 3 -50 48 Left 2
SYMATTR InstName L2
SYMATTR Value {Ls}
SYMATTR SpiceLine Rser=1m
SYMBOL ind 80 256 R180
WINDOW 0 -36 89 Left 2
WINDOW 3 -50 54 Left 2
SYMATTR InstName L3
SYMATTR Value {Ls}
SYMATTR SpiceLine Rser=1m
SYMBOL res 656 -16 R0
SYMATTR InstName R1
SYMATTR Value 680
SYMBOL LED 656 80 R0
SYMATTR InstName D5
SYMBOL res 656 128 R0
SYMATTR InstName R2
SYMATTR Value 680
SYMBOL LED 656 224 R0
SYMATTR InstName D6
SYMBOL cap 768 48 R0
SYMATTR InstName C3
SYMATTR Value 100n
SYMBOL cap 768 176 R0
SYMATTR InstName C4
SYMATTR Value 100n
SYMBOL lib\\sym\\ZZZ\\VolReg\\LM7812 1008 0 R0
SYMATTR InstName U1
SYMBOL diode 1232 96 R180
WINDOW 0 24 64 Left 2
WINDOW 3 24 0 Left 2
SYMATTR InstName D7
SYMBOL diode 1232 272 R180
WINDOW 0 24 64 Left 2
WINDOW 3 24 0 Left 2
SYMATTR InstName D8
SYMBOL polcap 1296 48 R0
SYMATTR InstName C5
SYMATTR Value 1µ
SYMATTR SpiceLine Rser=1
SYMBOL polcap 1296 208 R0
SYMATTR InstName C6
SYMATTR Value 1µ
SYMATTR SpiceLine Rser=.5
SYMBOL res 1408 96 R0
SYMATTR InstName R3
SYMATTR Value 24
SYMBOL sym\\ZZZ\\VolReg\\7912 1008 304 M180
SYMATTR InstName U2
TEXT 160 320 Left 2 !.tran 50ms
TEXT -104 16 Left 2 !K1 L1 L2 L3 1
TEXT -240 264 Left 2 !.param Lp=10m
TEXT -240 296 Left 2 !.param Ls=Lp/336
