Version 4.1
SHEET 1 880 680
WIRE 144 0 64 0
WIRE 288 0 208 0
WIRE 64 80 64 0
WIRE 80 80 64 80
WIRE 192 80 160 80
WIRE 288 80 288 0
WIRE 288 80 272 80
WIRE 304 144 176 144
WIRE 176 160 176 144
WIRE -96 176 -112 176
WIRE 64 176 64 80
WIRE 64 176 48 176
WIRE 144 176 64 176
WIRE 288 192 288 80
WIRE 288 192 208 192
WIRE -496 208 -496 192
WIRE -416 208 -416 192
WIRE 144 208 128 208
WIRE 176 240 176 224
WIRE 304 240 176 240
WIRE 128 256 128 208
WIRE -464 432 -464 416
FLAG 304 144 +Power
IOPIN 304 144 In
FLAG 304 240 -Power
IOPIN 304 240 In
FLAG 128 256 0
FLAG -496 112 +Power
IOPIN -496 112 Out
FLAG -416 112 -Power
IOPIN -416 112 Out
FLAG -496 208 0
FLAG -416 208 0
FLAG -112 176 Vs
IOPIN -112 176 In
FLAG -464 336 Vs
IOPIN -464 336 Out
FLAG -464 432 0
SYMBOL OpAmps\\UniversalOpAmp 176 192 R0
SYMATTR InstName U1
SYMBOL res 176 64 R90
WINDOW 0 0 56 VBottom 2
WINDOW 3 32 56 VTop 2
SYMATTR InstName R1
SYMATTR Value 390
SYMBOL res 64 160 R90
WINDOW 0 0 56 VBottom 2
WINDOW 3 32 56 VTop 2
SYMATTR InstName R2
SYMATTR Value 3.9k
SYMBOL voltage -496 96 R0
WINDOW 123 0 0 Left 0
WINDOW 39 0 0 Left 0
SYMATTR InstName V1
SYMATTR Value 15
SYMBOL voltage -416 208 M180
WINDOW 123 0 0 Left 0
WINDOW 39 0 0 Left 0
SYMATTR InstName V2
SYMATTR Value 15
SYMBOL voltage -464 320 R0
WINDOW 123 24 124 Left 2
WINDOW 39 0 0 Left 0
SYMATTR Value2 AC 34.65m
SYMATTR InstName V3
SYMATTR Value ""
SYMBOL res 288 64 R90
WINDOW 0 0 56 VBottom 2
WINDOW 3 32 56 VTop 2
SYMATTR InstName R3
SYMATTR Value 50k
SYMBOL polcap -96 192 R270
WINDOW 0 32 32 VTop 2
WINDOW 3 0 32 VBottom 2
SYMATTR InstName C1
SYMATTR Value 2.2µ
SYMBOL cap 208 -16 R90
WINDOW 0 0 32 VBottom 2
WINDOW 3 32 32 VTop 2
SYMATTR InstName C2
SYMATTR Value 150p
TEXT -264 336 Left 2 !.ac dec 100 10 44k
