Version 4
SHEET 1 1764 1032
WIRE 592 -320 592 -336
WIRE 688 -288 688 -336
WIRE 592 -224 592 -256
WIRE 688 -160 688 -208
WIRE 496 -112 464 -112
WIRE 592 -112 592 -160
WIRE 592 -112 576 -112
WIRE 624 -112 592 -112
WIRE 464 -80 464 -112
WIRE 784 -64 784 -336
WIRE 624 -16 528 -16
WIRE 688 -16 688 -64
WIRE 688 -16 624 -16
WIRE 720 -16 688 -16
WIRE 528 0 528 -16
WIRE 624 32 624 -16
WIRE 624 32 560 32
WIRE 688 64 688 -16
WIRE 112 96 112 80
WIRE 208 96 208 80
WIRE 528 112 528 80
WIRE 624 112 528 112
WIRE 896 112 784 112
WIRE 1024 112 960 112
WIRE 528 128 528 112
WIRE 1024 160 1024 112
WIRE 528 240 528 208
WIRE 528 240 272 240
WIRE 688 240 688 160
WIRE 688 240 528 240
WIRE 720 240 688 240
WIRE 272 272 272 240
WIRE 1024 272 1024 240
WIRE 688 288 688 240
WIRE 496 336 480 336
WIRE 592 336 576 336
WIRE 624 336 592 336
WIRE 480 368 480 336
WIRE 272 384 272 352
WIRE 592 384 592 336
WIRE 688 416 688 384
WIRE 592 480 592 448
WIRE 592 560 592 544
WIRE 688 560 688 496
WIRE 784 560 784 288
FLAG 208 0 -Power
IOPIN 208 0 Out
FLAG 112 0 +Power
IOPIN 112 0 Out
FLAG 112 96 0
FLAG 208 96 0
FLAG 784 -336 +Power
IOPIN 784 -336 In
FLAG 784 560 -Power
IOPIN 784 560 In
FLAG 688 -336 +Power
IOPIN 688 -336 In
FLAG 592 -336 +Power
IOPIN 592 -336 In
FLAG 688 560 -Power
IOPIN 688 560 In
FLAG 592 560 -Power
IOPIN 592 560 In
FLAG 272 384 0
FLAG 464 -80 0
FLAG 480 368 0
FLAG 1024 272 0
SYMBOL voltage 112 -16 R0
WINDOW 123 0 0 Left 0
WINDOW 39 0 0 Left 0
SYMATTR InstName V3
SYMATTR Value 15
SYMBOL voltage 208 96 M180
WINDOW 0 24 96 Left 2
WINDOW 3 24 16 Left 2
WINDOW 123 0 0 Left 0
WINDOW 39 0 0 Left 0
SYMATTR InstName V4
SYMATTR Value 15
SYMBOL npn 720 -64 R0
SYMATTR InstName Q1
SYMATTR Value TIP31
SYMBOL res 768 16 R0
SYMATTR InstName Rtr1
SYMATTR Value {rtr}
SYMBOL res 768 96 R0
SYMATTR InstName Rtr2
SYMATTR Value {rtr}
SYMBOL res 1008 144 R0
SYMATTR InstName RL
SYMATTR Value 8
SYMBOL npn 624 64 R0
SYMATTR InstName Q5
SYMATTR Value 2N3904
SYMBOL res 512 112 R0
SYMATTR InstName Rbe
SYMATTR Value 33k
SYMBOL npn 624 288 R0
SYMATTR InstName Q4
SYMATTR Value 2N3904
SYMBOL diode 576 -320 R0
SYMATTR InstName D1
SYMBOL diode 576 -224 R0
SYMATTR InstName D2
SYMBOL res 672 -304 R0
SYMATTR InstName Re1
SYMATTR Value {re}
SYMBOL res 592 -128 R90
WINDOW 0 0 56 VBottom 2
WINDOW 3 32 56 VTop 2
SYMATTR InstName Rb1
SYMATTR Value {rb}
SYMBOL diode 576 480 R0
SYMATTR InstName D3
SYMBOL res 672 400 R0
SYMATTR InstName Re2
SYMATTR Value {re}
SYMBOL res 592 320 R90
WINDOW 0 0 56 VBottom 2
WINDOW 3 32 56 VTop 2
SYMATTR InstName Rb2
SYMATTR Value {rb}
SYMBOL diode 576 384 R0
SYMATTR InstName D4
SYMBOL voltage 272 256 R0
WINDOW 123 0 0 Left 0
WINDOW 39 0 0 Left 0
WINDOW 3 9 99 Left 2
SYMATTR InstName Vin
SYMATTR Value SINE(0 5 1k)
SYMBOL pot_ 544 -16 M0
SYMATTR InstName U1
SYMATTR Value2 wiper={bias}
SYMBOL pnp 720 288 M180
SYMATTR InstName Q2
SYMATTR Value TIP32
SYMBOL pnp 624 -64 M180
SYMATTR InstName Q3
SYMATTR Value 2N3906
SYMBOL polcap 896 128 R270
WINDOW 0 32 32 VTop 2
WINDOW 3 0 32 VBottom 2
SYMATTR InstName C1
SYMATTR Value 4700µ
TEXT 1008 416 Left 2 !.model TIP31 NPN (IS=1E-14 BF=25 NF=1.0 VAF=100)
TEXT 1008 456 Left 2 !.model TIP32 PNP (IS=1E-14 BF=25 NF=1.0 VAF=100)
TEXT 1008 496 Left 2 !.model 2N3906 PNP (IS=1E-14 BF=50 NF=1.0 VAF=100)
TEXT 1008 536 Left 2 !.model 2N3904 NPN (IS=1E-14 BF=50 NF=1.0 VAF=100)
TEXT 1008 576 Left 2 !.tran 0 .002 0 .01
TEXT 1008 376 Left 2 !.param rb=3.3k
TEXT 1008 344 Left 2 !.param re=33
TEXT 1008 312 Left 2 !.param rtr=.33
TEXT 1256 312 Left 2 !;.step param bias .01 .99 .1
TEXT 1264 344 Left 2 !.param bias=.5
