Version 4
SHEET 1 7092 1032
WIRE 496 -288 496 -320
WIRE 784 -240 784 -320
WIRE 784 -240 688 -240
WIRE 688 -224 688 -240
WIRE 496 -176 496 -208
WIRE 496 -176 384 -176
WIRE 624 -176 496 -176
WIRE 784 -144 784 -240
WIRE 496 -128 496 -176
WIRE 688 -96 688 -128
WIRE 720 -96 688 -96
WIRE 496 -32 496 -64
WIRE 784 0 784 -48
WIRE 496 64 496 32
WIRE 784 112 784 80
WIRE 784 112 688 112
WIRE 864 112 784 112
WIRE 976 112 928 112
WIRE 688 128 688 112
WIRE 256 176 208 176
WIRE 384 176 384 -176
WIRE 384 176 320 176
WIRE 496 176 496 128
WIRE 496 176 384 176
WIRE 624 176 496 176
WIRE 976 176 976 112
WIRE 784 208 784 112
WIRE 496 224 496 176
WIRE 688 256 688 224
WIRE 720 256 688 256
WIRE 976 304 976 256
WIRE 784 320 784 304
WIRE 496 432 496 304
WIRE 784 432 784 400
WIRE 1136 560 1136 528
WIRE 1248 560 1248 544
WIRE 1344 560 1344 544
WIRE 1136 672 1136 640
FLAG 1344 464 -Power
IOPIN 1344 464 Out
FLAG 1248 464 +Power
IOPIN 1248 464 Out
FLAG 1248 560 0
FLAG 1344 560 0
FLAG 1136 672 0
FLAG 1136 528 Vs
IOPIN 1136 528 Out
FLAG 496 -320 +Power
IOPIN 496 -320 In
FLAG 784 -320 +Power
IOPIN 784 -320 In
FLAG 784 432 -Power
IOPIN 784 432 In
FLAG 976 304 0
FLAG 208 176 Vs
IOPIN 208 176 In
FLAG 496 432 -Power
IOPIN 496 432 In
SYMBOL voltage 1248 448 R0
WINDOW 123 0 0 Left 0
WINDOW 39 0 0 Left 0
SYMATTR InstName V3
SYMATTR Value 15
SYMBOL voltage 1344 560 M180
WINDOW 0 24 96 Left 2
WINDOW 3 24 16 Left 2
WINDOW 123 0 0 Left 0
WINDOW 39 0 0 Left 0
SYMATTR InstName V4
SYMATTR Value 15
SYMBOL voltage 1136 544 R0
WINDOW 123 0 0 Left 0
WINDOW 39 0 0 Left 0
WINDOW 3 9 99 Left 2
SYMATTR Value SINE(0 5 1k)
SYMATTR InstName Vin
SYMBOL npn 720 -144 R0
SYMATTR InstName Q1
SYMATTR Value TIP31C
SYMBOL npn 624 -224 R0
SYMATTR InstName Q2
SYMATTR Value 2N3904
SYMBOL npn 720 208 R0
SYMATTR InstName Q3
SYMATTR Value TIP31C
SYMBOL pnp 624 224 M180
SYMATTR InstName Q4
SYMATTR Value 2N3906
SYMBOL diode 480 -128 R0
SYMATTR InstName D1
SYMBOL diode 480 -32 R0
SYMATTR InstName D2
SYMBOL diode 480 64 R0
SYMATTR InstName D3
SYMBOL res 480 -304 R0
SYMATTR InstName R2
SYMATTR Value 33k
SYMBOL polcap 864 96 M90
WINDOW 0 0 32 VBottom 2
WINDOW 3 32 32 VTop 2
SYMATTR InstName C3
SYMATTR Value 4700µ
SYMBOL res 960 160 R0
SYMATTR InstName RL
SYMATTR Value 8
SYMBOL polcap 320 160 R90
WINDOW 0 0 32 VBottom 2
WINDOW 3 32 32 VTop 2
SYMATTR InstName C1
SYMATTR Value 100µ
SYMBOL res 480 208 R0
SYMATTR InstName R1
SYMATTR Value 10k
SYMBOL res 768 304 R0
SYMATTR InstName R3
SYMATTR Value 0.33
SYMBOL res 768 -16 R0
SYMATTR InstName R4
SYMATTR Value 0.33
TEXT 1128 720 Left 2 !.tran 0 .002 0 .01
TEXT 1080 -72 Left 2 !.MODEL 2N3904 NPN(\n+ IS=1E-14 VAF=100 Bf=150 IKF=0.4 XTB=1.5 BR=4 CJC=4E-12\n+ CJE=8E-12 RB=20 RC=0.1 RE=0.1 TR=250E-9 TF=350E-12 ITF=1\n+ VTF=2 XTF=3 Vceo=40 Icrating=200m mfg=NXP)
TEXT 1080 64 Left 2 !.MODEL TIP31C NPN(\n+ IS=1.62181E-13 ISE=1.75416E-11 ISC=4.36516E-14 XTI=3\n+ BF=30 BR=20.607 IKF=6.98433 IKR=0.997156 XTB=1.5301\n+ VAF=110.5 VAR=159.374 VJE=0.636 VJC=0.408 RE=0.56\n+ RC=0.96 RB=164.793 RBM=0.100291 IRB=1.24287E-7\n+ CJE=4.77E-10 CJC=7.29E-11 XCJC=0.589205 FC=0.5\n+ NF=0.9899 NR=0.989511 NE=1.95 NC=1.014 MJE=0.327\n+ MJC=0.339 TF=2.3733E-8 TR=1.0000E-8 ITF=1 VTF=10\n+ XTF=10 EG=1.1605 KF=1E-9 AF=1 VCEO=100 ICRATING=3\n+ MFG=NSC-FAIRCHILD)
TEXT 1080 -208 Left 2 !.model 2N3906 PNP(\n+ IS=1E-14 VAF=100 BF=150 IKF=0.4 XTB=1.5 BR=4 CJC=4.5E-12\n+ CJE=10E-12 RB=20 RC=0.1 RE=0.1 TR=250E-9 TF=350E-12\n+ ITF=1 VTF=2 XTF=3 Vceo=40 Icrating=200m mfg=NXP)
